@<TRIPOS>MOLECULE
mol5
   12    11     0     0     0
SMALL
USER_CHARGES
@<TRIPOS>ATOM
  1 C 0.1 0.1 0.0 
  2 C 0.5 0.4 0.0 
  3 C 0.5 0.2 0.0 
  4 C 0.8 0.1 0.0
  5 C 0.9 0.1 0.0
  6 C 0.9 0.3 0.0
  7 C 0.6 0.4 0.0
  8 C 0.6 0.6 0.0
  9 C 0.1 0.9 0.0
  10 C 0.8 0.9 0.0
  11 C 0.1 0.4 0.0
  12 C 0.9 0.4 0.0
@<TRIPOS>BOND
    1 1 9 1
    2 1 5 1
    3 2 11 1
    4 2 3 1
    5 3 4 1
    6 4 10 1
    7 5 6 1
    8 11 12 1
    9 12 7 1
    10 7 8 1
    11 8 9 1