@<TRIPOS>MOLECULE
mol3
   12    13     0     0     0
SMALL
USER_CHARGES
@<TRIPOS>ATOM
  1 C 0.1 0.1 0.0 
  2 C 0.2 0.2 0.0 
  3 C 0.4 0.9 0.0 
  4 C 0.4 0.1 0.0
  5 C 0.5 0.2 0.0
  6 C 0.6 0.1 0.0
  7 C 0.6 0.9 0.0
  8 C 0.9 0.9 0.0
  9 C 0.1 0.9 0.0
  10 C 0.1 0.7 0.0
  11 C 0.9 0.7 0.0
  12 C 0.9 0.1 0.0
@<TRIPOS>BOND
    1 1 4 1
    2 1 2 1
    3 1 12 1
    4 2 3 1
    5 3 4 1
    6 4 5 1
    7 5 6 1
    8 6 7 1
    9 7 8 1
    10 8 9 1
    11 9 10 1
    12 10 11 1
    13 11 12 1