@<TRIPOS>MOLECULE
mol5
   15    17     0     0     0
SMALL
USER_CHARGES
@<TRIPOS>ATOM
  1 C 0.5 0.5 0.0 
  2 C 0.8 0.5 0.0 
  3 C 0.9 0.5 0.0 
  4 C 0.8 0.9 0.0
  5 C 0.1 0.5 0.0
  6 C 0.2 0.8 0.0
  7 C 0.3 0.9 0.0
  8 C 0.2 0.3 0.0
  9 C 0.1 0.1 0.0
  10 C 0.3 0.1 0.0
  11 C 0.4 0.2 0.0
  12 C 0.8 0.1 0.0
  13 C 0.9 0.1 0.0
  14 C 0.1 0.7 0.0
  15 C 0.9 0.7 0.0 
@<TRIPOS>BOND
    1 1 2 1
    2 1 12 1
    3 1 5 1
    4 2 3 1
    5 2 4 1
    6 3 5 1
    7 6 8 1
    8 6 7 1
    9 7 10 1
    10 10 11 1
    11 8 9 1
    12 9 13 1
    13 13 12 1
    14 12 4 1
    15 14 5 1
    16 14 15 1
    17 15 6 1