@<TRIPOS>MOLECULE
mol15
   8    8     0     0     0
SMALL
USER_CHARGES
@<TRIPOS>ATOM
  1 C 0.1 0.1 0.0 
  2 C 0.9 0.9 0.0 
  3 C 0.1 0.7 0.0 
  4 C 0.9 0.5 0.0
  5 C 0.5 0.2 0.0
  6 C 0.3 0.1 0.0
  7 C 0.3 0.6 0.0
  8 C 0.3 0.9 0.0
@<TRIPOS>BOND
    1 1 2 1
    2 1 5 1
    3 2 3 1
    4 3 4 1
    5 4 5 1
    6 6 7 1
    7 6 8 1
    8 7 8 1