@<TRIPOS>MOLECULE
mol1
   11    10     1     0     1
SMALL
USER_CHARGES
@<TRIPOS>ATOM
  1 C          -0.925688   -0.070320    0.687941 c3         1 OP5        0.7861 ****
  2 H          -1.263482    0.780622    1.280562 h1         1 OP5       -0.1540 ****
  3 H          -1.101272   -0.965164    1.276858 h1         1 OP5       -0.1540 ****
  4 C           0.573190    0.085065    0.470400 c3         1 OP5        0.3202 ****
  5 H           1.038683    0.184803    1.450550 h1         1 OP5       -0.0805 ****
  6 O           0.740925    1.289084   -0.248237 oh         1 OP5       -0.7336 ****
  7 H           1.654075    1.404865   -0.470528 ho         1 OP5        0.4433 ****
  8 C           1.204886   -1.091188   -0.262968 c3         1 OP5       -0.2408 ****
  9 H           2.271560   -0.926022   -0.400190 hc         1 OP5        0.0608 ****
 10 H           1.086610   -2.007430    0.307060 hc         1 OP5        0.0608 ****
 11 H           0.744579   -1.226780   -1.232284 hc         1 OP5        0.0608 ****
@<TRIPOS>BOND
    1     1     2 1
    2     1     3 1
    3     1     4 1
    4     4     5 1
    5     4     6 1
    6     4     8 1
    7     6     7 1
    8     8     9 1
    9     8    10 1
    10     8    11 1